&share
 wrf_core = 'ARW',
 max_dom = 1,
 start_date = '2024-02-07_00:00:00',
 end_date   = '2024-02-08_06:00:00',
 interval_seconds = 3600,
 io_form_geogrid = 2,
 opt_output_from_geogrid_path = '/glade/derecho/scratch/ljaeger/workflow/UM_WRF_1Dom1km/wps/geogrid/',
/

&geogrid
 parent_id         =   1,
 parent_grid_ratio =   1,
 i_parent_start    =   1,
 j_parent_start    =   1,
 e_we              = 340,
 e_sn              = 340,
 geog_data_res = 'usgs_lakes+default','usgs_lakes+default',
 dx = 1000.0,
 dy = 1000.0,
 map_proj = 'lambert',
 ref_lat   =  47.7777,
 ref_lon   =  -118.0318,
 truelat1  =  47.7777,
 truelat2  =  47.7777,
 stand_lon =  -118.0318,
 geog_data_path = '/glade/work/wrfhelp/WPS_GEOG',
 opt_geogrid_tbl_path = '/glade/u/home/ljaeger/wrf-run/bin/WPS-4.6-dmpar-casper/geogrid',
/

&ungrib
 out_format = 'WPS',
 prefix = '/glade/derecho/scratch/ljaeger/workflow/UM_WRF_1Dom1km/wps/20250324_00/ungrib/HRRR',
/

&metgrid
 fg_name = '/glade/derecho/scratch/ljaeger/workflow/UM_WRF_1Dom1km/wps/20250324_00/ungrib/HRRR', '/glade/derecho/scratch/ljaeger/workflow/UM_WRF_1Dom1km/wps/20220801_00/ungrib/HRRR_soil',
 io_form_metgrid = 2,
 constants_name = 'TAVGSFC'
 opt_output_from_metgrid_path = '/glade/derecho/scratch/ljaeger/workflow/UM_WRF_1Dom1km/wps/20250324_00/metgrid',
 opt_metgrid_tbl_path = '/glade/u/home/ljaeger/wrf-run/bin/WPS-4.6-dmpar-casper/metgrid',
/
